ROOT
HETATM    1  C1  UNL     1      -2.595  -2.271   0.056  1.00  0.00 0.000     C
HETATM    2  C2  UNL     1      -1.718  -1.136  -0.380  1.00  0.00 0.000     C
HETATM    3  O1  UNL     1      -1.568  -0.785  -1.544  1.00  0.00-0.200     O
HETATM    4  O2  UNL     1      -1.143  -0.554   0.744  1.00  0.00-0.200     O
HETATM    5  C3  UNL     1      -0.235   0.459   0.419  1.00  0.00 0.000     C
HETATM    6  C4  UNL     1      -0.699   1.775   0.518  1.00  0.00 0.000     C
HETATM    7  C5  UNL     1       0.163   2.833   0.236  1.00  0.00 0.000     C
HETATM    8  C6  UNL     1       1.484   2.576  -0.131  1.00  0.00 0.000     C
HETATM    9  C7  UNL     1       1.949   1.260  -0.210  1.00  0.00 0.000     C
HETATM   10  C8  UNL     1       1.095   0.182   0.071  1.00  0.00 0.000     C
HETATM   11  C9  UNL     1       1.591  -1.218   0.017  1.00  0.00 0.000     C
HETATM   12  O3  UNL     1       0.978  -2.227   0.314  1.00  0.00-0.200     O
HETATM   13  O4  UNL     1       2.865  -1.298  -0.413  1.00  0.00-0.200     O
HETATM   14  H1  UNL     1      -3.005  -2.771  -0.826  1.00  0.00 0.100     H
HETATM   15  H2  UNL     1      -3.422  -1.888   0.660  1.00  0.00 0.100     H
HETATM   16  H3  UNL     1      -2.008  -2.998   0.623  1.00  0.00 0.100     H
HETATM   17  H4  UNL     1      -1.728   1.974   0.805  1.00  0.00 0.100     H
HETATM   18  H5  UNL     1      -0.194   3.858   0.300  1.00  0.00 0.100     H
HETATM   19  H6  UNL     1       2.156   3.402  -0.353  1.00  0.00 0.100     H
HETATM   20  H7  UNL     1       2.986   1.087  -0.491  1.00  0.00 0.100     H
HETATM   21  H8  UNL     1       3.050  -2.261  -0.416  1.00  0.00 0.100     H
ENDROOT
TORSDOF 0
