ROOT
HETATM    1  C1  UNL     1       3.270   0.604  -0.227  1.00  0.00 0.000     C
HETATM    2  N1  UNL     1       2.125  -0.269  -0.278  1.00  0.00-0.100     N
HETATM    3  C2  UNL     1       2.143  -1.613  -0.545  1.00  0.00 0.000     C
HETATM    4  N2  UNL     1       0.931  -2.130  -0.519  1.00  0.00-0.100     N
HETATM    5  C3  UNL     1       0.119  -1.077  -0.225  1.00  0.00 0.000     C
HETATM    6  C4  UNL     1       0.821   0.080  -0.071  1.00  0.00 0.000     C
HETATM    7  C5  UNL     1       0.212   1.326   0.239  1.00  0.00 0.000     C
HETATM    8  O1  UNL     1       0.854   2.363   0.376  1.00  0.00-0.200     O
HETATM    9  N3  UNL     1      -1.177   1.231   0.368  1.00  0.00-0.100     N
HETATM   10  C6  UNL     1      -1.939   0.054   0.216  1.00  0.00 0.000     C
HETATM   11  O2  UNL     1      -3.167   0.072   0.349  1.00  0.00-0.200     O
HETATM   12  N4  UNL     1      -1.247  -1.119  -0.089  1.00  0.00-0.100     N
HETATM   13  C7  UNL     1      -1.957  -2.373  -0.261  1.00  0.00 0.000     C
HETATM   14  C8  UNL     1      -1.917   2.437   0.684  1.00  0.00 0.000     C
HETATM   15  H1  UNL     1       4.176   0.030  -0.436  1.00  0.00 0.100     H
HETATM   16  H2  UNL     1       3.146   1.385  -0.981  1.00  0.00 0.100     H
HETATM   17  H3  UNL     1       3.332   1.038   0.774  1.00  0.00 0.100     H
HETATM   18  H4  UNL     1       3.055  -2.160  -0.749  1.00  0.00 0.100     H
HETATM   19  H5  UNL     1      -1.589  -3.096   0.474  1.00  0.00 0.100     H
HETATM   20  H6  UNL     1      -3.035  -2.254  -0.124  1.00  0.00 0.100     H
HETATM   21  H7  UNL     1      -1.774  -2.751  -1.272  1.00  0.00 0.100     H
HETATM   22  H8  UNL     1      -2.462   2.284   1.621  1.00  0.00 0.100     H
HETATM   23  H9  UNL     1      -2.646   2.626  -0.112  1.00  0.00 0.100     H
HETATM   24  H10 UNL     1      -1.272   3.312   0.788  1.00  0.00 0.100     H
ENDROOT
TORSDOF 0
