ROOT
HETATM    1  C1  UNL     1       7.874  -0.370  -0.089  1.00  0.00 0.000     C
HETATM    2  C2  UNL     1       7.028  -1.486   0.496  1.00  0.00 0.000     C
HETATM    3  O1  UNL     1       5.828  -0.947   1.070  1.00  0.00-0.200     O
HETATM    4  C3  UNL     1       4.786  -0.786   0.215  1.00  0.00 0.000     C
HETATM    5  O2  UNL     1       4.790  -1.060  -0.974  1.00  0.00-0.200     O
HETATM    6  C4  UNL     1       3.610  -0.219   0.931  1.00  0.00 0.000     C
HETATM    7  C5  UNL     1       2.387  -0.139   0.243  1.00  0.00 0.000     C
HETATM    8  C6  UNL     1       1.256   0.394   0.867  1.00  0.00 0.000     C
HETATM    9  C7  UNL     1       1.362   0.861   2.183  1.00  0.00 0.000     C
HETATM   10  C8  UNL     1       2.573   0.785   2.874  1.00  0.00 0.000     C
HETATM   11  C9  UNL     1       3.696   0.248   2.249  1.00  0.00 0.000     C
HETATM   12  N1  UNL     1      -0.004   0.515   0.249  1.00  0.00-0.100     N
HETATM   13  C10 UNL     1      -0.399   0.029  -0.978  1.00  0.00 0.000     C
HETATM   14  O3  UNL     1       0.271  -0.701  -1.706  1.00  0.00-0.200     O
HETATM   15  C11 UNL     1      -1.831   0.392  -1.388  1.00  0.00 0.000     C
HETATM   16  C12 UNL     1      -2.009   1.924  -1.449  1.00  0.00 0.000     C
HETATM   17  C13 UNL     1      -3.440   2.408  -1.212  1.00  0.00 0.000     C
HETATM   18  C14 UNL     1      -4.067   1.853   0.073  1.00  0.00 0.000     C
HETATM   19  C15 UNL     1      -3.454   0.544   0.599  1.00  0.00 0.000     C
HETATM   20  C16 UNL     1      -2.914  -0.343  -0.558  1.00  0.00 0.000     C
HETATM   21  N2  UNL     1      -2.478  -1.674  -0.108  1.00  0.00-0.100     N
HETATM   22  C17 UNL     1      -3.364  -2.593   0.410  1.00  0.00 0.000     C
HETATM   23  O4  UNL     1      -4.538  -2.342   0.661  1.00  0.00-0.200     O
HETATM   24  C18 UNL     1      -2.767  -3.952   0.662  1.00  0.00 0.000     C
HETATM   25  N3  UNL     1      -2.400   0.823   1.603  1.00  0.00-0.100     N
HETATM   26  C19 UNL     1      -4.324   2.115  -2.408  1.00  0.00 0.000     C
HETATM   27  O5  UNL     1      -4.145   1.262  -3.260  1.00  0.00-0.200     O
HETATM   28  O6  UNL     1      -5.408   2.913  -2.454  1.00  0.00-0.200     O
HETATM   29  H1  UNL     1       8.073   0.400   0.664  1.00  0.00 0.100     H
HETATM   30  H2  UNL     1       7.354   0.122  -0.917  1.00  0.00 0.100     H
HETATM   31  H3  UNL     1       8.828  -0.757  -0.459  1.00  0.00 0.100     H
HETATM   32  H4  UNL     1       6.804  -2.255  -0.252  1.00  0.00 0.100     H
HETATM   33  H5  UNL     1       7.577  -1.976   1.307  1.00  0.00 0.100     H
HETATM   34  H6  UNL     1       2.347  -0.495  -0.783  1.00  0.00 0.100     H
HETATM   35  H7  UNL     1       0.500   1.290   2.689  1.00  0.00 0.100     H
HETATM   36  H8  UNL     1       2.641   1.149   3.896  1.00  0.00 0.100     H
HETATM   37  H9  UNL     1       4.634   0.202   2.798  1.00  0.00 0.100     H
HETATM   38  H10 UNL     1      -0.752   0.922   0.819  1.00  0.00 0.100     H
HETATM   39  H11 UNL     1      -1.926   0.015  -2.418  1.00  0.00 0.100     H
HETATM   40  H12 UNL     1      -1.651   2.275  -2.427  1.00  0.00 0.100     H
HETATM   41  H13 UNL     1      -1.363   2.427  -0.718  1.00  0.00 0.100     H
HETATM   42  H14 UNL     1      -3.400   3.504  -1.141  1.00  0.00 0.100     H
HETATM   43  H15 UNL     1      -4.013   2.625   0.854  1.00  0.00 0.100     H
HETATM   44  H16 UNL     1      -5.142   1.686  -0.079  1.00  0.00 0.100     H
HETATM   45  H17 UNL     1      -4.247   0.017   1.140  1.00  0.00 0.100     H
HETATM   46  H18 UNL     1      -3.766  -0.537  -1.225  1.00  0.00 0.100     H
HETATM   47  H19 UNL     1      -1.645  -2.061  -0.544  1.00  0.00 0.100     H
HETATM   48  H20 UNL     1      -2.878  -4.200   1.721  1.00  0.00 0.100     H
HETATM   49  H21 UNL     1      -3.293  -4.691   0.052  1.00  0.00 0.100     H
HETATM   50  H22 UNL     1      -1.704  -3.984   0.410  1.00  0.00 0.100     H
HETATM   51  H23 UNL     1      -2.838   1.337   2.374  1.00  0.00 0.100     H
HETATM   52  H24 UNL     1      -2.169  -0.089   2.021  1.00  0.00 0.100     H
HETATM   53  H25 UNL     1      -5.890   2.623  -3.258  1.00  0.00 0.100     H
ENDROOT
TORSDOF 0
